LAMMPS (7 Jan 2022)
# PREREQUISITES:
#
#     You must use moltemplate.sh to create 3 files:
#        system.data  system.in.init  system.in.settings
#      (Follow the instructions in README_setup.sh,
#       or run the file as a script using ./README_setup.sh)
#
# ------------------------------- Initialization Section --------------------

include      "system.in.init"        # specify the style of force field used
  atom_style full
  units real
  bond_style harmonic
  angle_style harmonic
  dihedral_style opls
  improper_style harmonic
  pair_style lj/cut/coul/long 11.0 11.0
  pair_modify mix geometric
  kspace_style pppm 0.0001

# ------------------------------- Atom Definition Section -------------------

read_data    "system.data"
Reading data file ...
  orthogonal box = (0 0 0) to (103.5 103.5 103.5)
  reading atoms ...
  5000 atoms
  scanning bonds ...
  scanning angles ...
  reading bonds ...
  4000 bonds
  reading angles ...
  6000 angles
Finding 1-2 1-3 1-4 neighbors ...
     4 = max # of 1-2 neighbors
     3 = max # of 1-3 neighbors
     3 = max # of 1-4 neighbors
     4 = max # of special neighbors

# ------------------------------- Settings Section --------------------------

include      "system.in.settings"    # load the force field parameters
  pair_coeff 1 1 0.066 3.5
  pair_coeff 2 2 0.03 2.5
  bond_coeff 1 340.0 1.09
  angle_coeff 1 33.0 107.8
  set type 1 charge -0.24
Setting atom values ...
  1000 settings made for charge
  set type 2 charge 0.06
Setting atom values ...
  4000 settings made for charge
include      "system.in.charges"     # load the charge of each atom
  set type 1 charge -0.24
Setting atom values ...
  1000 settings made for charge
  set type 2 charge 0.06
Setting atom values ...
  4000 settings made for charge

# ------------------------------- Run Section -------------------------------

# -- minimization protocol --

thermo        500
minimize 1.0e-4 1.0e-6 100000 400000
PPPM initialization ...
  G vector (1/distance) = 0.13982374
  grid = 15 15 15
  stencil order = 5
  estimated absolute RMS force accuracy = 0.025711481
  estimated relative force accuracy = 7.7429363e-05
  3d grid and FFT values/proc = 8000 3375
  generated 1 of 1 mixed pair_coeff terms from geometric mixing rule
  update every 1 steps, delay 0 steps, check yes
Step Temp E_pair E_mol TotEng Press
0            0    13.473059    169.81587    183.28893    62.917711
Loop time of 0.0193548 on 1 procs for 2 steps with 5000 atoms

Minimization stats:
  Stopping criterion = energy tolerance
  Energy initial, next-to-last, final =
  Force two-norm initial, final = 43.104107 0.12623321
  Force max component initial, final = 0.68269501 0.0017082284
  Final line search alpha, max atom move = 1 0.0017082284
  Iterations, force evaluations = 2 4

# Optional: write the coordinates after minimization
write_data   system_after_min.data
System init for write_data ...
PPPM initialization ...
  G vector (1/distance) = 0.13982374
  grid = 15 15 15
  stencil order = 5
  estimated absolute RMS force accuracy = 0.025711481
  estimated relative force accuracy = 7.7429363e-05
  3d grid and FFT values/proc = 8000 3375
  generated 1 of 1 mixed pair_coeff terms from geometric mixing rule

# -- simulation protocol --

timestep        1.0
dump            1 all custom 2500 traj_npt.lammpstrj id mol type x y z ix iy iz
thermo_style    custom step time temp press vol density pe etotal epair ebond eangle edihed
fix             fxnpt all npt temp 300.0 300.0 100.0 iso 1.0 1.0 1000.0 drag 1.0

run             500000
PPPM initialization ...
  G vector (1/distance) = 0.13982374
  grid = 15 15 15
  stencil order = 5
  estimated absolute RMS force accuracy = 0.025711481
  estimated relative force accuracy = 7.7429363e-05
  3d grid and FFT values/proc = 8000 3375
  generated 1 of 1 mixed pair_coeff terms from geometric mixing rule
Step Time Temp Press Volume Density PotEng TotEng E_pair E_bond E_angle E_dihed
2            2            0    1.7188027    1108717.9  0.024027777    181.92292    181.92292     13.46648 1.4398946e-05    168.45642            0
Averages over the last 501 of 1002 rows, steps 250500 to 500002:
Temp Press Volume Density PotEng TotEng E_pair E_bond E_angle E_dihed
300.002 1.00251 5.84856e+07 0.000456256 877.326 5347.68 -1.69209 130.916 748.102 0
Loop time of 6777.22 on 1 procs for 500000 steps with 5000 atoms

write_data   system_after_npt.data
System init for write_data ...
PPPM initialization ...
  G vector (1/distance) = 0.1594581
  grid = 72 72 72
  stencil order = 5
  estimated absolute RMS force accuracy = 0.0016855553
  estimated relative force accuracy = 5.0759997e-06
  3d grid and FFT values/proc = 456533 373248
  generated 1 of 1 mixed pair_coeff terms from geometric mixing rule
